* NGSPICE file created from multiply_add_64x64.ext - technology: sky130A

* Black-box entry subcircuit for sky130_fd_sc_hd__fill_1 abstract view
.subckt sky130_fd_sc_hd__fill_1 VGND VNB VPB VPWR
.ends

* Black-box entry subcircuit for sky130_ef_sc_hd__decap_12 abstract view
.subckt sky130_ef_sc_hd__decap_12 VGND VPWR VPB VNB
.ends

* Black-box entry subcircuit for sky130_fd_sc_hd__fa_2 abstract view
.subckt sky130_fd_sc_hd__fa_2 A B CIN VGND VNB VPB VPWR COUT SUM
.ends

* Black-box entry subcircuit for sky130_fd_sc_hd__decap_4 abstract view
.subckt sky130_fd_sc_hd__decap_4 VGND VNB VPB VPWR
.ends

* Black-box entry subcircuit for sky130_fd_sc_hd__fill_2 abstract view
.subckt sky130_fd_sc_hd__fill_2 VGND VNB VPB VPWR
.ends

* Black-box entry subcircuit for sky130_fd_sc_hd__fa_1 abstract view
.subckt sky130_fd_sc_hd__fa_1 A B CIN VGND VNB VPB VPWR COUT SUM
.ends

* Black-box entry subcircuit for sky130_fd_sc_hd__decap_3 abstract view
.subckt sky130_fd_sc_hd__decap_3 VGND VNB VPB VPWR
.ends

* Black-box entry subcircuit for sky130_fd_sc_hd__decap_8 abstract view
.subckt sky130_fd_sc_hd__decap_8 VGND VNB VPB VPWR
.ends

* Black-box entry subcircuit for sky130_fd_sc_hd__xor2_1 abstract view
.subckt sky130_fd_sc_hd__xor2_1 A B VGND VNB VPB VPWR X
.ends

* Black-box entry subcircuit for sky130_fd_sc_hd__conb_1 abstract view
.subckt sky130_fd_sc_hd__conb_1 VGND VNB VPB VPWR HI LO
.ends

* Black-box entry subcircuit for sky130_fd_sc_hd__decap_6 abstract view
.subckt sky130_fd_sc_hd__decap_6 VGND VNB VPB VPWR
.ends

* Black-box entry subcircuit for sky130_fd_sc_hd__tapvpwrvgnd_1 abstract view
.subckt sky130_fd_sc_hd__tapvpwrvgnd_1 VGND VPWR
.ends

* Black-box entry subcircuit for sky130_fd_sc_hd__diode_2 abstract view
.subckt sky130_fd_sc_hd__diode_2 DIODE VGND VNB VPB VPWR
.ends

* Black-box entry subcircuit for sky130_fd_sc_hd__dfxtp_1 abstract view
.subckt sky130_fd_sc_hd__dfxtp_1 CLK D VGND VNB VPB VPWR Q
.ends

* Black-box entry subcircuit for sky130_fd_sc_hd__a22o_1 abstract view
.subckt sky130_fd_sc_hd__a22o_1 A1 A2 B1 B2 VGND VNB VPB VPWR X
.ends

* Black-box entry subcircuit for sky130_fd_sc_hd__ha_1 abstract view
.subckt sky130_fd_sc_hd__ha_1 A B VGND VNB VPB VPWR COUT SUM
.ends

* Black-box entry subcircuit for sky130_fd_sc_hd__buf_6 abstract view
.subckt sky130_fd_sc_hd__buf_6 A VGND VNB VPB VPWR X
.ends

* Black-box entry subcircuit for sky130_fd_sc_hd__buf_4 abstract view
.subckt sky130_fd_sc_hd__buf_4 A VGND VNB VPB VPWR X
.ends

* Black-box entry subcircuit for sky130_fd_sc_hd__and2_1 abstract view
.subckt sky130_fd_sc_hd__and2_1 A B VGND VNB VPB VPWR X
.ends

* Black-box entry subcircuit for sky130_fd_sc_hd__buf_8 abstract view
.subckt sky130_fd_sc_hd__buf_8 A VGND VNB VPB VPWR X
.ends

* Black-box entry subcircuit for sky130_fd_sc_hd__clkbuf_8 abstract view
.subckt sky130_fd_sc_hd__clkbuf_8 A VGND VNB VPB VPWR X
.ends

* Black-box entry subcircuit for sky130_fd_sc_hd__inv_1 abstract view
.subckt sky130_fd_sc_hd__inv_1 A VGND VNB VPB VPWR Y
.ends

* Black-box entry subcircuit for sky130_fd_sc_hd__buf_2 abstract view
.subckt sky130_fd_sc_hd__buf_2 A VGND VNB VPB VPWR X
.ends

* Black-box entry subcircuit for sky130_fd_sc_hd__ha_2 abstract view
.subckt sky130_fd_sc_hd__ha_2 A B VGND VNB VPB VPWR COUT SUM
.ends

* Black-box entry subcircuit for sky130_fd_sc_hd__a21o_1 abstract view
.subckt sky130_fd_sc_hd__a21o_1 A1 A2 B1 VGND VNB VPB VPWR X
.ends

* Black-box entry subcircuit for sky130_fd_sc_hd__buf_12 abstract view
.subckt sky130_fd_sc_hd__buf_12 A VGND VNB VPB VPWR X
.ends

* Black-box entry subcircuit for sky130_fd_sc_hd__dfxtp_2 abstract view
.subckt sky130_fd_sc_hd__dfxtp_2 CLK D VGND VNB VPB VPWR Q
.ends

* Black-box entry subcircuit for sky130_fd_sc_hd__clkbuf_1 abstract view
.subckt sky130_fd_sc_hd__clkbuf_1 A VGND VNB VPB VPWR X
.ends

* Black-box entry subcircuit for sky130_fd_sc_hd__clkbuf_4 abstract view
.subckt sky130_fd_sc_hd__clkbuf_4 A VGND VNB VPB VPWR X
.ends

* Black-box entry subcircuit for sky130_fd_sc_hd__dlymetal6s2s_1 abstract view
.subckt sky130_fd_sc_hd__dlymetal6s2s_1 A VGND VNB VPB VPWR X
.ends

* Black-box entry subcircuit for sky130_fd_sc_hd__clkbuf_2 abstract view
.subckt sky130_fd_sc_hd__clkbuf_2 A VGND VNB VPB VPWR X
.ends

* Black-box entry subcircuit for sky130_fd_sc_hd__xor2_4 abstract view
.subckt sky130_fd_sc_hd__xor2_4 A B VGND VNB VPB VPWR X
.ends

* Black-box entry subcircuit for sky130_fd_sc_hd__a32o_2 abstract view
.subckt sky130_fd_sc_hd__a32o_2 A1 A2 A3 B1 B2 VGND VNB VPB VPWR X
.ends

* Black-box entry subcircuit for sky130_fd_sc_hd__dfxtp_4 abstract view
.subckt sky130_fd_sc_hd__dfxtp_4 CLK D VGND VNB VPB VPWR Q
.ends

* Black-box entry subcircuit for sky130_fd_sc_hd__clkbuf_16 abstract view
.subckt sky130_fd_sc_hd__clkbuf_16 A VGND VNB VPB VPWR X
.ends

* Black-box entry subcircuit for sky130_fd_sc_hd__a32o_4 abstract view
.subckt sky130_fd_sc_hd__a32o_4 A1 A2 A3 B1 B2 VGND VNB VPB VPWR X
.ends

* Black-box entry subcircuit for sky130_fd_sc_hd__a32o_1 abstract view
.subckt sky130_fd_sc_hd__a32o_1 A1 A2 A3 B1 B2 VGND VNB VPB VPWR X
.ends

* Black-box entry subcircuit for sky130_fd_sc_hd__a22o_2 abstract view
.subckt sky130_fd_sc_hd__a22o_2 A1 A2 B1 B2 VGND VNB VPB VPWR X
.ends

* Black-box entry subcircuit for sky130_fd_sc_hd__xor2_2 abstract view
.subckt sky130_fd_sc_hd__xor2_2 A B VGND VNB VPB VPWR X
.ends

* Black-box entry subcircuit for sky130_fd_sc_hd__a22o_4 abstract view
.subckt sky130_fd_sc_hd__a22o_4 A1 A2 B1 B2 VGND VNB VPB VPWR X
.ends

* Black-box entry subcircuit for sky130_fd_sc_hd__a21o_2 abstract view
.subckt sky130_fd_sc_hd__a21o_2 A1 A2 B1 VGND VNB VPB VPWR X
.ends

* Black-box entry subcircuit for sky130_fd_sc_hd__a21o_4 abstract view
.subckt sky130_fd_sc_hd__a21o_4 A1 A2 B1 VGND VNB VPB VPWR X
.ends

* Black-box entry subcircuit for sky130_fd_sc_hd__and2_2 abstract view
.subckt sky130_fd_sc_hd__and2_2 A B VGND VNB VPB VPWR X
.ends

* Black-box entry subcircuit for sky130_fd_sc_hd__ha_4 abstract view
.subckt sky130_fd_sc_hd__ha_4 A B VGND VNB VPB VPWR COUT SUM
.ends

.subckt multiply_add_64x64 VGND VPWR a[0] a[10] a[11] a[12] a[13] a[14] a[15] a[16]
+ a[17] a[18] a[19] a[1] a[20] a[21] a[22] a[23] a[24] a[25] a[26] a[27] a[28] a[29]
+ a[2] a[30] a[31] a[32] a[33] a[34] a[35] a[36] a[37] a[38] a[39] a[3] a[40] a[41]
+ a[42] a[43] a[44] a[45] a[46] a[47] a[48] a[49] a[4] a[50] a[51] a[52] a[53] a[54]
+ a[55] a[56] a[57] a[58] a[59] a[5] a[60] a[61] a[62] a[63] a[6] a[7] a[8] a[9] b[0]
+ b[10] b[11] b[12] b[13] b[14] b[15] b[16] b[17] b[18] b[19] b[1] b[20] b[21] b[22]
+ b[23] b[24] b[25] b[26] b[27] b[28] b[29] b[2] b[30] b[31] b[32] b[33] b[34] b[35]
+ b[36] b[37] b[38] b[39] b[3] b[40] b[41] b[42] b[43] b[44] b[45] b[46] b[47] b[48]
+ b[49] b[4] b[50] b[51] b[52] b[53] b[54] b[55] b[56] b[57] b[58] b[59] b[5] b[60]
+ b[61] b[62] b[63] b[6] b[7] b[8] b[9] c[0] c[100] c[101] c[102] c[103] c[104] c[105]
+ c[106] c[107] c[108] c[109] c[10] c[110] c[111] c[112] c[113] c[114] c[115] c[116]
+ c[117] c[118] c[119] c[11] c[120] c[121] c[122] c[123] c[124] c[125] c[126] c[127]
+ c[12] c[13] c[14] c[15] c[16] c[17] c[18] c[19] c[1] c[20] c[21] c[22] c[23] c[24]
+ c[25] c[26] c[27] c[28] c[29] c[2] c[30] c[31] c[32] c[33] c[34] c[35] c[36] c[37]
+ c[38] c[39] c[3] c[40] c[41] c[42] c[43] c[44] c[45] c[46] c[47] c[48] c[49] c[4]
+ c[50] c[51] c[52] c[53] c[54] c[55] c[56] c[57] c[58] c[59] c[5] c[60] c[61] c[62]
+ c[63] c[64] c[65] c[66] c[67] c[68] c[69] c[6] c[70] c[71] c[72] c[73] c[74] c[75]
+ c[76] c[77] c[78] c[79] c[7] c[80] c[81] c[82] c[83] c[84] c[85] c[86] c[87] c[88]
+ c[89] c[8] c[90] c[91] c[92] c[93] c[94] c[95] c[96] c[97] c[98] c[99] c[9] clk
+ o[0] o[100] o[101] o[102] o[103] o[104] o[105] o[106] o[107] o[108] o[109] o[10]
+ o[110] o[111] o[112] o[113] o[114] o[115] o[116] o[117] o[118] o[119] o[11] o[120]
+ o[121] o[122] o[123] o[124] o[125] o[126] o[127] o[12] o[13] o[14] o[15] o[16] o[17]
+ o[18] o[19] o[1] o[20] o[21] o[22] o[23] o[24] o[25] o[26] o[27] o[28] o[29] o[2]
+ o[30] o[31] o[32] o[33] o[34] o[35] o[36] o[37] o[38] o[39] o[3] o[40] o[41] o[42]
+ o[43] o[44] o[45] o[46] o[47] o[48] o[49] o[4] o[50] o[51] o[52] o[53] o[54] o[55]
+ o[56] o[57] o[58] o[59] o[5] o[60] o[61] o[62] o[63] o[64] o[65] o[66] o[67] o[68]
+ o[69] o[6] o[70] o[71] o[72] o[73] o[74] o[75] o[76] o[77] o[78] o[79] o[7] o[80]
+ o[81] o[82] o[83] o[84] o[85] o[86] o[87] o[88] o[89] o[8] o[90] o[91] o[92] o[93]
+ o[94] o[95] o[96] o[97] o[98] o[99] o[9] rst
XFILLER_140_296 VGND VGND VPWR VPWR sky130_fd_sc_hd__fill_1
XFILLER_80_1276 VGND VGND VPWR VPWR sky130_fd_sc_hd__fill_1
XFILLER_39_255 VGND VPWR VPWR VGND sky130_ef_sc_hd__decap_12
Xdadda_fa_1_57_8 dadda_fa_1_57_8/A dadda_fa_1_57_8/B dadda_fa_1_57_8/CIN VGND VGND
+ VPWR VPWR dadda_fa_2_58_3/A dadda_fa_3_57_0/A sky130_fd_sc_hd__fa_2
XFILLER_55_715 VGND VPWR VPWR VGND sky130_ef_sc_hd__decap_12
XFILLER_94_372 VGND VPWR VPWR VGND sky130_ef_sc_hd__decap_12
XFILLER_82_545 VGND VGND VPWR VPWR sky130_fd_sc_hd__decap_4
XFILLER_54_269 VGND VPWR VPWR VGND sky130_ef_sc_hd__decap_12
XFILLER_35_461 VGND VPWR VPWR VGND sky130_ef_sc_hd__decap_12
XFILLER_82_589 VGND VGND VPWR VPWR sky130_fd_sc_hd__fill_2
XFILLER_23_612 VGND VGND VPWR VPWR sky130_fd_sc_hd__decap_4
Xdadda_fa_2_104_0 dadda_fa_2_104_0/A U$$2875/X U$$3008/X VGND VGND VPWR VPWR dadda_fa_3_105_2/CIN
+ dadda_fa_3_104_3/B sky130_fd_sc_hd__fa_1
XFILLER_63_781 VGND VGND VPWR VPWR sky130_fd_sc_hd__decap_3
XFILLER_39_1145 VGND VGND VPWR VPWR sky130_fd_sc_hd__decap_4
XFILLER_211_713 VGND VGND VPWR VPWR sky130_fd_sc_hd__decap_4
XFILLER_23_645 VGND VPWR VPWR VGND sky130_ef_sc_hd__decap_12
XFILLER_210_201 VGND VGND VPWR VPWR sky130_fd_sc_hd__fill_1
XFILLER_165_1175 VGND VGND VPWR VPWR sky130_fd_sc_hd__fill_1
XFILLER_35_1009 VGND VGND VPWR VPWR sky130_fd_sc_hd__decap_4
XFILLER_51_965 VGND VGND VPWR VPWR sky130_fd_sc_hd__decap_8
XFILLER_52_29 VGND VPWR VPWR VGND sky130_ef_sc_hd__decap_12
XFILLER_196_937 VGND VGND VPWR VPWR sky130_fd_sc_hd__decap_4
XFILLER_22_144 VGND VGND VPWR VPWR sky130_fd_sc_hd__decap_4
XFILLER_195_447 VGND VGND VPWR VPWR sky130_fd_sc_hd__fill_1
XU$$1290 U$$1290/A U$$1332/B VGND VGND VPWR VPWR U$$1290/X sky130_fd_sc_hd__xor2_1
XFILLER_10_317 VGND VPWR VPWR VGND sky130_ef_sc_hd__decap_12
XFILLER_167_149 VGND VPWR VPWR VGND sky130_ef_sc_hd__decap_12
XFILLER_22_177 VGND VPWR VPWR VGND sky130_ef_sc_hd__decap_12
XU$$4244_1765 VGND VGND VPWR VPWR U$$4244_1765/HI U$$4244/B1 sky130_fd_sc_hd__conb_1
XFILLER_149_853 VGND VPWR VPWR VGND sky130_ef_sc_hd__decap_12
XFILLER_148_341 VGND VPWR VPWR VGND sky130_ef_sc_hd__decap_12
XFILLER_163_311 VGND VGND VPWR VPWR sky130_fd_sc_hd__decap_4
XFILLER_164_845 VGND VGND VPWR VPWR sky130_fd_sc_hd__decap_3
XFILLER_163_322 VGND VPWR VPWR VGND sky130_ef_sc_hd__decap_12
XFILLER_190_141 VGND VGND VPWR VPWR sky130_fd_sc_hd__decap_3
XFILLER_163_366 VGND VPWR VPWR VGND sky130_ef_sc_hd__decap_12
XFILLER_151_517 VGND VPWR VPWR VGND sky130_ef_sc_hd__decap_12
XFILLER_190_163 VGND VGND VPWR VPWR sky130_fd_sc_hd__decap_4
Xdadda_fa_1_90_2 U$$2581/X U$$2714/X U$$2847/X VGND VGND VPWR VPWR dadda_fa_2_91_4/CIN
+ dadda_fa_2_90_5/CIN sky130_fd_sc_hd__fa_1
XFILLER_85_1121 VGND VPWR VPWR VGND sky130_ef_sc_hd__decap_12
XFILLER_190_174 VGND VGND VPWR VPWR sky130_fd_sc_hd__decap_4
XFILLER_123_219 VGND VGND VPWR VPWR sky130_fd_sc_hd__decap_4
XFILLER_190_185 VGND VGND VPWR VPWR sky130_fd_sc_hd__decap_8
XFILLER_132_731 VGND VGND VPWR VPWR sky130_fd_sc_hd__fill_1
XFILLER_116_282 VGND VPWR VPWR VGND sky130_ef_sc_hd__decap_12
Xdadda_fa_1_83_1 U$$1769/X U$$1902/X U$$2035/X VGND VGND VPWR VPWR dadda_fa_2_84_2/A
+ dadda_fa_2_83_4/B sky130_fd_sc_hd__fa_1
XFILLER_117_55 VGND VGND VPWR VPWR sky130_fd_sc_hd__fill_1
XFILLER_81_1018 VGND VGND VPWR VPWR sky130_fd_sc_hd__decap_6
XFILLER_89_144 VGND VGND VPWR VPWR sky130_fd_sc_hd__decap_4
XFILLER_120_904 VGND VPWR VPWR VGND sky130_ef_sc_hd__decap_12
XFILLER_46_1149 VGND VGND VPWR VPWR sky130_fd_sc_hd__fill_2
Xdadda_fa_4_60_0 dadda_fa_4_60_0/A dadda_fa_4_60_0/B dadda_fa_4_60_0/CIN VGND VGND
+ VPWR VPWR dadda_fa_5_61_0/A dadda_fa_5_60_1/A sky130_fd_sc_hd__fa_1
Xdadda_fa_1_76_0 U$$1489/X U$$1622/X U$$1755/X VGND VGND VPWR VPWR dadda_fa_2_77_0/B
+ dadda_fa_2_76_3/B sky130_fd_sc_hd__fa_1
XFILLER_104_477 VGND VPWR VPWR VGND sky130_ef_sc_hd__decap_12
XFILLER_172_1168 VGND VGND VPWR VPWR sky130_fd_sc_hd__decap_4
XFILLER_131_274 VGND VGND VPWR VPWR sky130_fd_sc_hd__decap_6
XFILLER_120_937 VGND VGND VPWR VPWR sky130_fd_sc_hd__decap_4
XFILLER_172_1179 VGND VGND VPWR VPWR sky130_fd_sc_hd__decap_4
XFILLER_120_948 VGND VGND VPWR VPWR sky130_fd_sc_hd__decap_8
XFILLER_86_873 VGND VGND VPWR VPWR sky130_fd_sc_hd__fill_1
XFILLER_92_309 VGND VGND VPWR VPWR sky130_fd_sc_hd__decap_3
XFILLER_18_406 VGND VGND VPWR VPWR sky130_fd_sc_hd__decap_3
XU$$3609 U$$3609/A U$$3609/B VGND VGND VPWR VPWR U$$3609/X sky130_fd_sc_hd__xor2_1
XTAP_3202 VGND VPWR sky130_fd_sc_hd__tapvpwrvgnd_1
XFILLER_100_672 VGND VPWR VPWR VGND sky130_ef_sc_hd__decap_12
XTAP_3213 VGND VPWR sky130_fd_sc_hd__tapvpwrvgnd_1
XTAP_3224 VGND VPWR sky130_fd_sc_hd__tapvpwrvgnd_1
XFILLER_206_507 VGND VPWR VPWR VGND sky130_ef_sc_hd__decap_12
XFILLER_45_214 VGND VGND VPWR VPWR sky130_fd_sc_hd__decap_8
XFILLER_73_523 VGND VPWR VPWR VGND sky130_ef_sc_hd__decap_12
XFILLER_85_383 VGND VGND VPWR VPWR sky130_fd_sc_hd__decap_8
XTAP_3235 VGND VPWR sky130_fd_sc_hd__tapvpwrvgnd_1
XFILLER_45_225 VGND VGND VPWR VPWR sky130_fd_sc_hd__fill_2
XTAP_2501 VGND VPWR sky130_fd_sc_hd__tapvpwrvgnd_1
XU$$2908 U$$2908/A U$$2988/B VGND VGND VPWR VPWR U$$2908/X sky130_fd_sc_hd__xor2_1
XFILLER_172_3 VGND VGND VPWR VPWR sky130_fd_sc_hd__decap_6
XTAP_3246 VGND VPWR sky130_fd_sc_hd__tapvpwrvgnd_1
XANTENNA_202 _186_/D VGND VGND VPWR VPWR sky130_fd_sc_hd__diode_2
X_501_ _503_/CLK _501_/D VGND VGND VPWR VPWR _501_/Q sky130_fd_sc_hd__dfxtp_1
XFILLER_73_556 VGND VGND VPWR VPWR sky130_fd_sc_hd__decap_4
XU$$2919 U$$3193/A1 U$$2943/A2 U$$3056/B1 U$$2943/B2 VGND VGND VPWR VPWR U$$2920/A
+ sky130_fd_sc_hd__a22o_1
XTAP_2512 VGND VPWR sky130_fd_sc_hd__tapvpwrvgnd_1
XTAP_3257 VGND VPWR sky130_fd_sc_hd__tapvpwrvgnd_1
XTAP_3268 VGND VPWR sky130_fd_sc_hd__tapvpwrvgnd_1
XFILLER_27_951 VGND VGND VPWR VPWR sky130_fd_sc_hd__fill_1
XANTENNA_213 _186_/D VGND VGND VPWR VPWR sky130_fd_sc_hd__diode_2
XTAP_2523 VGND VPWR sky130_fd_sc_hd__tapvpwrvgnd_1
XTAP_3279 VGND VPWR sky130_fd_sc_hd__tapvpwrvgnd_1
XTAP_2534 VGND VPWR sky130_fd_sc_hd__tapvpwrvgnd_1
XFILLER_26_41 VGND VGND VPWR VPWR sky130_fd_sc_hd__fill_1
Xdadda_ha_5_124_1 U$$4511/X input156/X VGND VGND VPWR VPWR dadda_fa_6_125_0/CIN dadda_fa_7_124_0/A
+ sky130_fd_sc_hd__ha_1
XANTENNA_224 _187_/D VGND VGND VPWR VPWR sky130_fd_sc_hd__diode_2
XTAP_1800 VGND VPWR sky130_fd_sc_hd__tapvpwrvgnd_1
XTAP_2545 VGND VPWR sky130_fd_sc_hd__tapvpwrvgnd_1
XANTENNA_235 _189_/D VGND VGND VPWR VPWR sky130_fd_sc_hd__diode_2
XFILLER_2_1276 VGND VGND VPWR VPWR sky130_fd_sc_hd__fill_1
XTAP_1811 VGND VPWR sky130_fd_sc_hd__tapvpwrvgnd_1
XFILLER_61_729 VGND VGND VPWR VPWR sky130_fd_sc_hd__fill_1
XTAP_2556 VGND VPWR sky130_fd_sc_hd__tapvpwrvgnd_1
XANTENNA_246 _194_/D VGND VGND VPWR VPWR sky130_fd_sc_hd__diode_2
XFILLER_14_601 VGND VPWR VPWR VGND sky130_ef_sc_hd__decap_12
XTAP_1822 VGND VPWR sky130_fd_sc_hd__tapvpwrvgnd_1
XANTENNA_257 _196_/D VGND VGND VPWR VPWR sky130_fd_sc_hd__diode_2
X_432_ _432_/CLK _432_/D VGND VGND VPWR VPWR _432_/Q sky130_fd_sc_hd__dfxtp_1
XFILLER_26_472 VGND VGND VPWR VPWR sky130_fd_sc_hd__decap_4
XTAP_2567 VGND VPWR sky130_fd_sc_hd__tapvpwrvgnd_1
XFILLER_60_228 VGND VGND VPWR VPWR sky130_fd_sc_hd__fill_1
XTAP_1833 VGND VPWR sky130_fd_sc_hd__tapvpwrvgnd_1
XANTENNA_268 _198_/D VGND VGND VPWR VPWR sky130_fd_sc_hd__diode_2
XFILLER_92_1125 VGND VGND VPWR VPWR sky130_fd_sc_hd__decap_3
XTAP_2578 VGND VPWR sky130_fd_sc_hd__tapvpwrvgnd_1
XFILLER_26_85 VGND VPWR VPWR VGND sky130_ef_sc_hd__decap_12
XTAP_1844 VGND VPWR sky130_fd_sc_hd__tapvpwrvgnd_1
XTAP_2589 VGND VPWR sky130_fd_sc_hd__tapvpwrvgnd_1
XANTENNA_279 _213_/D VGND VGND VPWR VPWR sky130_fd_sc_hd__diode_2
XFILLER_13_111 VGND VGND VPWR VPWR sky130_fd_sc_hd__fill_1
XTAP_1855 VGND VPWR sky130_fd_sc_hd__tapvpwrvgnd_1
XTAP_1866 VGND VPWR sky130_fd_sc_hd__tapvpwrvgnd_1
XFILLER_13_133 VGND VGND VPWR VPWR sky130_fd_sc_hd__fill_1
XFILLER_199_797 VGND VPWR VPWR VGND sky130_ef_sc_hd__decap_12
XFILLER_158_105 VGND VGND VPWR VPWR sky130_fd_sc_hd__fill_1
X_363_ _492_/CLK _363_/D VGND VGND VPWR VPWR _363_/Q sky130_fd_sc_hd__dfxtp_1
XFILLER_42_976 VGND VGND VPWR VPWR sky130_fd_sc_hd__decap_4
XTAP_1877 VGND VPWR sky130_fd_sc_hd__tapvpwrvgnd_1
XTAP_1888 VGND VPWR sky130_fd_sc_hd__tapvpwrvgnd_1
XTAP_1899 VGND VPWR sky130_fd_sc_hd__tapvpwrvgnd_1
XFILLER_144_1259 VGND VGND VPWR VPWR sky130_fd_sc_hd__fill_1
XFILLER_158_149 VGND VGND VPWR VPWR sky130_fd_sc_hd__fill_1
X_294_ _615_/CLK _294_/D VGND VGND VPWR VPWR _294_/Q sky130_fd_sc_hd__dfxtp_1
XFILLER_201_267 VGND VPWR VPWR VGND sky130_ef_sc_hd__decap_12
XFILLER_174_609 VGND VGND VPWR VPWR sky130_fd_sc_hd__fill_2
XFILLER_13_199 VGND VGND VPWR VPWR sky130_fd_sc_hd__decap_4
XFILLER_9_148 VGND VPWR VPWR VGND sky130_ef_sc_hd__decap_12
XFILLER_177_1002 VGND VGND VPWR VPWR sky130_fd_sc_hd__decap_6
XFILLER_182_631 VGND VPWR VPWR VGND sky130_ef_sc_hd__decap_12
XFILLER_166_182 VGND VPWR VPWR VGND sky130_ef_sc_hd__decap_12
XFILLER_154_333 VGND VPWR VPWR VGND sky130_ef_sc_hd__decap_12
XFILLER_182_653 VGND VGND VPWR VPWR sky130_fd_sc_hd__decap_4
XFILLER_127_558 VGND VGND VPWR VPWR sky130_fd_sc_hd__fill_2
Xdadda_fa_3_98_1 dadda_fa_3_98_1/A dadda_fa_3_98_1/B dadda_fa_3_98_1/CIN VGND VGND
+ VPWR VPWR dadda_fa_4_99_0/CIN dadda_fa_4_98_2/A sky130_fd_sc_hd__fa_1
XFILLER_155_889 VGND VGND VPWR VPWR sky130_fd_sc_hd__decap_6
XFILLER_177_1057 VGND VGND VPWR VPWR sky130_fd_sc_hd__decap_6
XFILLER_154_377 VGND VPWR VPWR VGND sky130_ef_sc_hd__decap_12
Xdadda_fa_6_75_0 dadda_fa_6_75_0/A dadda_fa_6_75_0/B dadda_fa_6_75_0/CIN VGND VGND
+ VPWR VPWR dadda_fa_7_76_0/B dadda_fa_7_75_0/CIN sky130_fd_sc_hd__fa_2
XFILLER_5_376 VGND VPWR VPWR VGND sky130_ef_sc_hd__decap_12
XFILLER_111_904 VGND VPWR VPWR VGND sky130_ef_sc_hd__decap_12
XFILLER_150_561 VGND VPWR VPWR VGND sky130_ef_sc_hd__decap_12
XFILLER_95_103 VGND VGND VPWR VPWR sky130_fd_sc_hd__decap_8
XFILLER_123_797 VGND VGND VPWR VPWR sky130_fd_sc_hd__decap_3
XFILLER_7_1121 VGND VPWR VPWR VGND sky130_ef_sc_hd__decap_12
XFILLER_95_125 VGND VGND VPWR VPWR sky130_fd_sc_hd__decap_6
XFILLER_209_301 VGND VGND VPWR VPWR sky130_fd_sc_hd__decap_6
XFILLER_95_147 VGND VPWR VPWR VGND sky130_ef_sc_hd__decap_12
XFILLER_110_458 VGND VGND VPWR VPWR sky130_fd_sc_hd__decap_3
XFILLER_153_1090 VGND VGND VPWR VPWR sky130_fd_sc_hd__decap_4
XTAP_5160 VGND VPWR sky130_fd_sc_hd__tapvpwrvgnd_1
XFILLER_95_169 VGND VPWR VPWR VGND sky130_ef_sc_hd__decap_12
XTAP_5171 VGND VPWR sky130_fd_sc_hd__tapvpwrvgnd_1
XFILLER_3_1007 VGND VGND VPWR VPWR sky130_fd_sc_hd__fill_1
XTAP_5182 VGND VPWR sky130_fd_sc_hd__tapvpwrvgnd_1
XFILLER_67_92 VGND VPWR VPWR VGND sky130_ef_sc_hd__decap_12
XFILLER_114_1063 VGND VGND VPWR VPWR sky130_fd_sc_hd__decap_4
XTAP_5193 VGND VPWR sky130_fd_sc_hd__tapvpwrvgnd_1
XFILLER_114_1074 VGND VPWR VPWR VGND sky130_ef_sc_hd__decap_12
XFILLER_190_82 VGND VGND VPWR VPWR sky130_fd_sc_hd__fill_2
XFILLER_97_1025 VGND VGND VPWR VPWR sky130_fd_sc_hd__decap_4
XFILLER_190_93 VGND VGND VPWR VPWR sky130_fd_sc_hd__fill_2
XTAP_4470 VGND VPWR sky130_fd_sc_hd__tapvpwrvgnd_1
XFILLER_37_748 VGND VGND VPWR VPWR sky130_fd_sc_hd__decap_6
XTAP_4481 VGND VPWR sky130_fd_sc_hd__tapvpwrvgnd_1
XFILLER_64_545 VGND VPWR VPWR VGND sky130_ef_sc_hd__decap_12
XFILLER_91_331 VGND VGND VPWR VPWR sky130_fd_sc_hd__decap_4
XTAP_4492 VGND VPWR sky130_fd_sc_hd__tapvpwrvgnd_1
XFILLER_92_876 VGND VPWR VPWR VGND sky130_ef_sc_hd__decap_12
XFILLER_18_973 VGND VGND VPWR VPWR sky130_fd_sc_hd__decap_6
XFILLER_64_578 VGND VGND VPWR VPWR sky130_fd_sc_hd__decap_8
XTAP_3780 VGND VPWR sky130_fd_sc_hd__tapvpwrvgnd_1
XFILLER_64_589 VGND VGND VPWR VPWR sky130_fd_sc_hd__decap_6
XTAP_3791 VGND VPWR sky130_fd_sc_hd__tapvpwrvgnd_1
XFILLER_51_217 VGND VGND VPWR VPWR sky130_fd_sc_hd__decap_6
XU$$370 U$$916/B1 U$$384/A2 U$$781/B1 U$$384/B2 VGND VGND VPWR VPWR U$$371/A sky130_fd_sc_hd__a22o_1
XU$$381 U$$381/A U$$383/B VGND VGND VPWR VPWR U$$381/X sky130_fd_sc_hd__xor2_1
XFILLER_178_915 VGND VGND VPWR VPWR sky130_fd_sc_hd__decap_8
XU$$392 U$$392/A1 U$$392/A2 U$$942/A1 U$$392/B2 VGND VGND VPWR VPWR U$$393/A sky130_fd_sc_hd__a22o_1
XFILLER_205_584 VGND VGND VPWR VPWR sky130_fd_sc_hd__decap_4
XFILLER_32_442 VGND VGND VPWR VPWR sky130_fd_sc_hd__fill_1
XFILLER_71_1209 VGND VGND VPWR VPWR sky130_fd_sc_hd__decap_6
XFILLER_32_475 VGND VGND VPWR VPWR sky130_fd_sc_hd__fill_1
XFILLER_177_447 VGND VGND VPWR VPWR sky130_fd_sc_hd__fill_1
XFILLER_177_469 VGND VGND VPWR VPWR sky130_fd_sc_hd__fill_1
XFILLER_186_981 VGND VGND VPWR VPWR sky130_fd_sc_hd__decap_6
XFILLER_145_311 VGND VGND VPWR VPWR sky130_fd_sc_hd__decap_8
XFILLER_34_1097 VGND VGND VPWR VPWR sky130_fd_sc_hd__fill_2
XFILLER_195_1113 VGND VGND VPWR VPWR sky130_fd_sc_hd__decap_3
XFILLER_157_193 VGND VGND VPWR VPWR sky130_fd_sc_hd__decap_6
XFILLER_146_867 VGND VGND VPWR VPWR sky130_fd_sc_hd__fill_1
XFILLER_173_653 VGND VPWR VPWR VGND sky130_ef_sc_hd__decap_12
XFILLER_69_1149 VGND VPWR VPWR VGND sky130_ef_sc_hd__decap_12
Xdadda_fa_2_93_0 U$$2853/X U$$2986/X U$$3119/X VGND VGND VPWR VPWR dadda_fa_3_94_0/B
+ dadda_fa_3_93_2/B sky130_fd_sc_hd__fa_1
XFILLER_161_848 VGND VGND VPWR VPWR sky130_fd_sc_hd__decap_8
Xrepeater1270 U$$3404/A1 VGND VGND VPWR VPWR U$$2171/A1 sky130_fd_sc_hd__buf_6
XFILLER_99_442 VGND VGND VPWR VPWR sky130_fd_sc_hd__decap_6
Xrepeater1281 _605_/Q VGND VGND VPWR VPWR U$$3539/A1 sky130_fd_sc_hd__buf_4
Xrepeater1292 _603_/Q VGND VGND VPWR VPWR U$$3124/A1 sky130_fd_sc_hd__buf_4
XFILLER_141_561 VGND VPWR VPWR VGND sky130_ef_sc_hd__decap_12
XFILLER_86_103 VGND VPWR VPWR VGND sky130_ef_sc_hd__decap_12
XFILLER_102_937 VGND VPWR VPWR VGND sky130_ef_sc_hd__decap_12
XFILLER_141_594 VGND VGND VPWR VPWR sky130_fd_sc_hd__decap_4
XFILLER_101_447 VGND VGND VPWR VPWR sky130_fd_sc_hd__fill_1
Xdadda_fa_1_62_6 dadda_fa_1_62_6/A dadda_fa_1_62_6/B dadda_fa_1_62_6/CIN VGND VGND
+ VPWR VPWR dadda_fa_2_63_2/B dadda_fa_2_62_5/B sky130_fd_sc_hd__fa_1
XFILLER_45_1171 VGND VGND VPWR VPWR sky130_fd_sc_hd__decap_4
XFILLER_74_309 VGND VGND VPWR VPWR sky130_fd_sc_hd__decap_8
XFILLER_170_19 VGND VGND VPWR VPWR sky130_fd_sc_hd__decap_8
XFILLER_55_501 VGND VGND VPWR VPWR sky130_fd_sc_hd__decap_3
Xdadda_fa_1_55_5 U$$2777/X U$$2910/X U$$3043/X VGND VGND VPWR VPWR dadda_fa_2_56_2/A
+ dadda_fa_2_55_5/A sky130_fd_sc_hd__fa_1
XFILLER_110_981 VGND VGND VPWR VPWR sky130_fd_sc_hd__decap_8
XFILLER_28_748 VGND VGND VPWR VPWR sky130_fd_sc_hd__decap_8
XFILLER_27_225 VGND VPWR VPWR VGND sky130_ef_sc_hd__decap_12
XFILLER_55_534 VGND VGND VPWR VPWR sky130_fd_sc_hd__decap_4
Xdadda_fa_1_48_4 U$$1699/X U$$1832/X U$$1965/X VGND VGND VPWR VPWR dadda_fa_2_49_2/B
+ dadda_fa_2_48_5/A sky130_fd_sc_hd__fa_1
XFILLER_167_1215 VGND VGND VPWR VPWR sky130_fd_sc_hd__decap_4
XFILLER_103_57 VGND VGND VPWR VPWR sky130_fd_sc_hd__decap_8
XTAP_1107 VGND VPWR sky130_fd_sc_hd__tapvpwrvgnd_1
XFILLER_43_729 VGND VGND VPWR VPWR sky130_fd_sc_hd__decap_4
XTAP_1118 VGND VPWR sky130_fd_sc_hd__tapvpwrvgnd_1
XTAP_1129 VGND VPWR sky130_fd_sc_hd__tapvpwrvgnd_1
Xdadda_fa_4_18_2 dadda_fa_4_18_2/A dadda_fa_4_18_2/B dadda_ha_3_18_2/SUM VGND VGND
+ VPWR VPWR dadda_fa_5_19_0/CIN dadda_fa_5_18_1/CIN sky130_fd_sc_hd__fa_1
XFILLER_196_701 VGND VGND VPWR VPWR sky130_fd_sc_hd__decap_8
XFILLER_179_39 VGND VPWR VPWR VGND sky130_ef_sc_hd__decap_12
XFILLER_208_1245 VGND VGND VPWR VPWR sky130_fd_sc_hd__fill_2
XFILLER_24_976 VGND VGND VPWR VPWR sky130_fd_sc_hd__decap_4
XFILLER_195_211 VGND VPWR VPWR VGND sky130_ef_sc_hd__decap_12
XFILLER_50_250 VGND VGND VPWR VPWR sky130_fd_sc_hd__fill_2
XFILLER_211_543 VGND VGND VPWR VPWR sky130_fd_sc_hd__fill_1
XFILLER_11_615 VGND VGND VPWR VPWR sky130_fd_sc_hd__fill_1
XFILLER_50_261 VGND VGND VPWR VPWR sky130_fd_sc_hd__decap_3
XFILLER_17_1240 VGND VGND VPWR VPWR sky130_fd_sc_hd__decap_8
XFILLER_211_576 VGND VGND VPWR VPWR sky130_fd_sc_hd__decap_4
XFILLER_10_125 VGND VPWR VPWR VGND sky130_ef_sc_hd__decap_12
XFILLER_195_277 VGND VGND VPWR VPWR sky130_fd_sc_hd__decap_3
Xdadda_fa_7_92_0 dadda_fa_7_92_0/A dadda_fa_7_92_0/B dadda_fa_7_92_0/CIN VGND VGND
+ VPWR VPWR _517_/D _388_/D sky130_fd_sc_hd__fa_2
XFILLER_17_1273 VGND VGND VPWR VPWR sky130_fd_sc_hd__decap_4
XFILLER_164_620 VGND VPWR VPWR VGND sky130_ef_sc_hd__decap_12
XFILLER_10_169 VGND VPWR VPWR VGND sky130_ef_sc_hd__decap_12
XFILLER_136_322 VGND VGND VPWR VPWR sky130_fd_sc_hd__fill_1
XFILLER_13_1137 VGND VGND VPWR VPWR sky130_fd_sc_hd__fill_1
XFILLER_100_1118 VGND VPWR VPWR VGND sky130_ef_sc_hd__decap_12
XFILLER_109_558 VGND VGND VPWR VPWR sky130_fd_sc_hd__fill_2
XFILLER_164_675 VGND VGND VPWR VPWR sky130_fd_sc_hd__decap_4
XFILLER_163_141 VGND VGND VPWR VPWR sky130_fd_sc_hd__decap_4
XFILLER_137_889 VGND VGND VPWR VPWR sky130_fd_sc_hd__decap_6
XFILLER_191_461 VGND VPWR VPWR VGND sky130_ef_sc_hd__decap_12
XFILLER_87_1249 VGND VGND VPWR VPWR sky130_fd_sc_hd__decap_4
XFILLER_136_377 VGND VPWR VPWR VGND sky130_ef_sc_hd__decap_12
XFILLER_124_528 VGND VGND VPWR VPWR sky130_fd_sc_hd__decap_4
XFILLER_2_324 VGND VGND VPWR VPWR sky130_fd_sc_hd__decap_8
XFILLER_117_591 VGND VGND VPWR VPWR sky130_fd_sc_hd__decap_3
XFILLER_88_69 VGND VGND VPWR VPWR sky130_fd_sc_hd__decap_4
XFILLER_104_230 VGND VGND VPWR VPWR sky130_fd_sc_hd__fill_2
XFILLER_2_357 VGND VGND VPWR VPWR sky130_fd_sc_hd__decap_6
XFILLER_105_775 VGND VGND VPWR VPWR sky130_fd_sc_hd__decap_8
XFILLER_160_881 VGND VPWR VPWR VGND sky130_ef_sc_hd__decap_12
XFILLER_137_1063 VGND VGND VPWR VPWR sky130_fd_sc_hd__fill_1
XFILLER_144_53 VGND VPWR VPWR VGND sky130_ef_sc_hd__decap_12
XU$$4107 U$$4516/B1 U$$4107/A2 U$$4107/B1 U$$4107/B2 VGND VGND VPWR VPWR U$$4108/A
+ sky130_fd_sc_hd__a22o_1
XU$$4118 U$$4392/A1 U$$4140/A2 U$$4394/A1 U$$4140/B2 VGND VGND VPWR VPWR U$$4119/A
+ sky130_fd_sc_hd__a22o_1
XU$$4129 U$$4129/A U$$4239/B VGND VGND VPWR VPWR U$$4129/X sky130_fd_sc_hd__xor2_1
XFILLER_59_873 VGND VGND VPWR VPWR sky130_fd_sc_hd__decap_4
XFILLER_77_169 VGND VPWR VPWR VGND sky130_ef_sc_hd__decap_12
XFILLER_46_501 VGND VPWR VPWR VGND sky130_ef_sc_hd__decap_12
XFILLER_86_670 VGND VPWR VPWR VGND sky130_ef_sc_hd__decap_12
XU$$3406 U$$3952/B1 U$$3408/A2 U$$4504/A1 U$$3408/B2 VGND VGND VPWR VPWR U$$3407/A
+ sky130_fd_sc_hd__a22o_1
XTAP_3010 VGND VPWR sky130_fd_sc_hd__tapvpwrvgnd_1
XFILLER_18_214 VGND VGND VPWR VPWR sky130_fd_sc_hd__decap_4
XU$$3417 U$$3417/A U$$3423/B VGND VGND VPWR VPWR U$$3417/X sky130_fd_sc_hd__xor2_1
XFILLER_19_748 VGND VGND VPWR VPWR sky130_fd_sc_hd__decap_8
XFILLER_18_225 VGND VPWR VPWR VGND sky130_ef_sc_hd__decap_12
XFILLER_58_394 VGND VPWR VPWR VGND sky130_ef_sc_hd__decap_12
XU$$3428 _667_/Q U$$3428/B VGND VGND VPWR VPWR U$$3428/X sky130_fd_sc_hd__and2_1
XFILLER_92_139 VGND VGND VPWR VPWR sky130_fd_sc_hd__fill_1
XTAP_3021 VGND VPWR sky130_fd_sc_hd__tapvpwrvgnd_1
XFILLER_206_304 VGND VGND VPWR VPWR sky130_fd_sc_hd__decap_4
XU$$3439 U$$3713/A1 U$$3519/A2 U$$3578/A1 U$$3519/B2 VGND VGND VPWR VPWR U$$3440/A
+ sky130_fd_sc_hd__a22o_1
XFILLER_46_545 VGND VGND VPWR VPWR sky130_fd_sc_hd__decap_4
XTAP_3032 VGND VPWR sky130_fd_sc_hd__tapvpwrvgnd_1
XFILLER_37_73 VGND VGND VPWR VPWR sky130_fd_sc_hd__fill_1
XU$$2705 U$$2705/A1 U$$2705/A2 U$$4214/A1 U$$2705/B2 VGND VGND VPWR VPWR U$$2706/A
+ sky130_fd_sc_hd__a22o_1
XTAP_3043 VGND VPWR sky130_fd_sc_hd__tapvpwrvgnd_1
XTAP_3054 VGND VPWR sky130_fd_sc_hd__tapvpwrvgnd_1
XFILLER_206_337 VGND VPWR VPWR VGND sky130_ef_sc_hd__decap_12
XFILLER_74_876 VGND VGND VPWR VPWR sky130_fd_sc_hd__decap_4
XTAP_2320 VGND VPWR sky130_fd_sc_hd__tapvpwrvgnd_1
XU$$2716 U$$2716/A U$$2734/B VGND VGND VPWR VPWR U$$2716/X sky130_fd_sc_hd__xor2_1
XU$$2727 _610_/Q U$$2729/A2 _611_/Q U$$2729/B2 VGND VGND VPWR VPWR U$$2728/A sky130_fd_sc_hd__a22o_1
XTAP_3065 VGND VPWR sky130_fd_sc_hd__tapvpwrvgnd_1
XFILLER_209_1009 VGND VPWR VPWR VGND sky130_ef_sc_hd__decap_12
XFILLER_46_589 VGND VGND VPWR VPWR sky130_fd_sc_hd__decap_8
XTAP_2331 VGND VPWR sky130_fd_sc_hd__tapvpwrvgnd_1
XU$$2738 U$$2738/A U$$2739/A VGND VGND VPWR VPWR U$$2738/X sky130_fd_sc_hd__xor2_1
XTAP_3076 VGND VPWR sky130_fd_sc_hd__tapvpwrvgnd_1
XFILLER_160_85 VGND VPWR VPWR VGND sky130_ef_sc_hd__decap_12
XU$$2749 U$$2749/A U$$2795/B VGND VGND VPWR VPWR U$$2749/X sky130_fd_sc_hd__xor2_1
XTAP_2342 VGND VPWR sky130_fd_sc_hd__tapvpwrvgnd_1
XTAP_3087 VGND VPWR sky130_fd_sc_hd__tapvpwrvgnd_1
Xdadda_fa_3_20_2 U$$845/X U$$978/X U$$1111/X VGND VGND VPWR VPWR dadda_fa_4_21_1/A
+ dadda_fa_4_20_2/B sky130_fd_sc_hd__fa_1
XTAP_2353 VGND VPWR sky130_fd_sc_hd__tapvpwrvgnd_1
XTAP_3098 VGND VPWR sky130_fd_sc_hd__tapvpwrvgnd_1
XTAP_2364 VGND VPWR sky130_fd_sc_hd__tapvpwrvgnd_1
XTAP_1630 VGND VPWR sky130_fd_sc_hd__tapvpwrvgnd_1
XFILLER_61_548 VGND VGND VPWR VPWR sky130_fd_sc_hd__fill_1
XTAP_2375 VGND VPWR sky130_fd_sc_hd__tapvpwrvgnd_1
XFILLER_96_1080 VGND VGND VPWR VPWR sky130_fd_sc_hd__fill_1
XTAP_1641 VGND VPWR sky130_fd_sc_hd__tapvpwrvgnd_1
XFILLER_199_561 VGND VGND VPWR VPWR sky130_fd_sc_hd__fill_2
XTAP_2386 VGND VPWR sky130_fd_sc_hd__tapvpwrvgnd_1
XFILLER_109_1121 VGND VGND VPWR VPWR sky130_fd_sc_hd__decap_4
X_415_ _547_/CLK _415_/D VGND VGND VPWR VPWR _415_/Q sky130_fd_sc_hd__dfxtp_1
XTAP_1652 VGND VPWR sky130_fd_sc_hd__tapvpwrvgnd_1
XTAP_2397 VGND VPWR sky130_fd_sc_hd__tapvpwrvgnd_1
XFILLER_148_1181 VGND VPWR VPWR VGND sky130_ef_sc_hd__decap_12
XTAP_1663 VGND VPWR sky130_fd_sc_hd__tapvpwrvgnd_1
XFILLER_183_1072 VGND VPWR VPWR VGND sky130_ef_sc_hd__decap_12
XFILLER_159_425 VGND VGND VPWR VPWR sky130_fd_sc_hd__fill_1
XFILLER_14_464 VGND VGND VPWR VPWR sky130_fd_sc_hd__fill_2
XTAP_1674 VGND VPWR sky130_fd_sc_hd__tapvpwrvgnd_1
XFILLER_18_1037 VGND VPWR VPWR VGND sky130_ef_sc_hd__decap_12
XTAP_1685 VGND VPWR sky130_fd_sc_hd__tapvpwrvgnd_1
XFILLER_109_1154 VGND VGND VPWR VPWR sky130_fd_sc_hd__fill_2
XTAP_1696 VGND VPWR sky130_fd_sc_hd__tapvpwrvgnd_1
XFILLER_41_272 VGND VGND VPWR VPWR sky130_fd_sc_hd__decap_8